1TBF.A
  -OEChem-07122313563D
HYDROLASE
 63 66  0     0  0  0  0  0  0999 V2000
   32.0320   34.5630   65.3800 C   0  0  0  0  0  0  0  0  0  0  0  0
   30.6320   34.1100   65.7200 C   0  0  0  0  0  0  0  0  0  0  0  0
   30.5210   32.9410   66.7770 C   0  0  0  0  0  0  0  0  0  0  0  0
   29.1230   32.6570   67.0740 C   0  0  0  0  0  0  0  0  0  0  0  0
   28.4230   33.1660   68.1140 N   0  0  0  0  0  0  0  0  0  0  0  0
   27.1530   32.7080   68.1100 N   0  0  0  0  0  0  0  0  0  0  0  0
   26.1450   33.0650   69.0890 C   0  0  0  0  0  0  0  0  0  0  0  0
   26.9860   31.8600   67.0320 C   0  0  0  0  0  0  0  0  0  0  0  0
   25.8540   31.1260   66.5900 C   0  0  0  0  0  0  0  0  0  0  0  0
   24.7300   31.0900   67.0850 O   0  0  0  0  0  0  0  0  0  0  0  0
   26.1330   30.3850   65.4380 N   0  0  0  0  0  0  0  0  0  0  0  0
   27.3850   30.3850   64.8310 C   0  0  0  0  0  0  0  0  0  0  0  0
   28.4530   31.0500   65.2170 N   0  0  0  0  0  0  0  0  0  0  0  0
   28.2180   31.8020   66.3460 C   0  0  0  0  0  0  0  0  0  0  0  0
   27.4310   29.5130   63.6400 C   0  0  0  0  0  0  0  0  0  0  0  0
   28.5500   28.6620   63.6270 C   0  0  0  0  0  0  0  0  0  0  0  0
   28.7780   27.7500   62.5810 C   0  0  0  0  0  0  0  0  0  0  0  0
   27.8430   27.7280   61.5650 C   0  0  0  0  0  0  0  0  0  0  0  0
   26.7610   28.5400   61.5750 C   0  0  0  0  0  0  0  0  0  0  0  0
   26.5330   29.4590   62.6290 C   0  0  0  0  0  0  0  0  0  0  0  0
   25.5150   30.2870   62.7240 O   0  0  0  0  0  0  0  0  0  0  0  0
   24.3950   30.1920   61.7740 C   0  0  0  0  0  0  0  0  0  0  0  0
   23.3760   31.1710   62.2270 C   0  0  0  0  0  0  0  0  0  0  0  0
   30.1610   26.7130   62.5720 S   0  0  0  0  0  0  0  0  0  0  0  0
   30.4350   26.1960   63.8060 O   0  0  0  0  0  0  0  0  0  0  0  0
   29.9950   25.7830   61.5430 O   0  0  0  0  0  0  0  0  0  0  0  0
   31.4160   27.6690   62.2050 N   0  0  0  0  0  0  0  0  0  0  0  0
   32.7740   27.4250   62.6270 C   0  0  0  0  0  0  0  0  0  0  0  0
   33.5620   28.7140   62.9720 C   0  0  0  0  0  0  0  0  0  0  0  0
   33.3790   29.7790   61.9880 N   0  0  0  0  0  0  0  0  0  0  0  0
   34.0900   31.0040   62.2800 C   0  0  0  0  0  0  0  0  0  0  0  0
   31.9930   29.9940   61.6090 C   0  0  0  0  0  0  0  0  0  0  0  0
   31.3550   28.6610   61.1670 C   0  0  0  0  0  0  0  0  0  0  0  0
   31.9855   35.3750   64.6394 H   0  0  0  0  0  0  0  0  0  0  0  0
   32.5312   34.9256   66.2906 H   0  0  0  0  0  0  0  0  0  0  0  0
   32.5994   33.7182   64.9624 H   0  0  0  0  0  0  0  0  0  0  0  0
   30.0849   34.9772   66.1183 H   0  0  0  0  0  0  0  0  0  0  0  0
   30.1530   33.7698   64.7901 H   0  0  0  0  0  0  0  0  0  0  0  0
   30.9959   32.0367   66.3688 H   0  0  0  0  0  0  0  0  0  0  0  0
   31.0351   33.2391   67.7027 H   0  0  0  0  0  0  0  0  0  0  0  0
   26.5772   33.7594   69.8245 H   0  0  0  0  0  0  0  0  0  0  0  0
   25.2970   33.5489   68.5823 H   0  0  0  0  0  0  0  0  0  0  0  0
   25.7956   32.1574   69.6030 H   0  0  0  0  0  0  0  0  0  0  0  0
   25.4037   29.8329   65.0340 H   0  0  0  0  0  0  0  0  0  0  0  0
   29.2549   28.7100   64.4439 H   0  0  0  0  0  0  0  0  0  0  0  0
   27.9792   27.0442   60.7402 H   0  0  0  0  0  0  0  0  0  0  0  0
   26.0542   28.4865   60.7602 H   0  0  0  0  0  0  0  0  0  0  0  0
   24.7359   30.4405   60.7581 H   0  0  0  0  0  0  0  0  0  0  0  0
   23.9753   29.1753   61.7814 H   0  0  0  0  0  0  0  0  0  0  0  0
   22.5112   31.1417   61.5479 H   0  0  0  0  0  0  0  0  0  0  0  0
   23.0504   30.9160   63.2463 H   0  0  0  0  0  0  0  0  0  0  0  0
   23.8111   32.1813   62.2230 H   0  0  0  0  0  0  0  0  0  0  0  0
   32.7498   26.7836   63.5203 H   0  0  0  0  0  0  0  0  0  0  0  0
   33.3012   26.9029   61.8149 H   0  0  0  0  0  0  0  0  0  0  0  0
   33.2218   29.0805   63.9518 H   0  0  0  0  0  0  0  0  0  0  0  0
   34.6325   28.4663   63.0247 H   0  0  0  0  0  0  0  0  0  0  0  0
   33.8917   31.7413   61.4881 H   0  0  0  0  0  0  0  0  0  0  0  0
   33.7497   31.4038   63.2466 H   0  0  0  0  0  0  0  0  0  0  0  0
   35.1696   30.7987   62.3277 H   0  0  0  0  0  0  0  0  0  0  0  0
   31.4380   30.3960   62.4695 H   0  0  0  0  0  0  0  0  0  0  0  0
   31.9499   30.7122   60.7770 H   0  0  0  0  0  0  0  0  0  0  0  0
   31.8919   28.2852   60.2836 H   0  0  0  0  0  0  0  0  0  0  0  0
   30.3012   28.8398   60.9071 H   0  0  0  0  0  0  0  0  0  0  0  0
  1  2  1  0  0  0  0
  2  3  1  0  0  0  0
  3  4  1  0  0  0  0
  4  5  2  0  0  0  0
  4 14  1  0  0  0  0
  5  6  1  0  0  0  0
  6  7  1  0  0  0  0
  6  8  1  0  0  0  0
  8  9  1  0  0  0  0
  8 14  2  0  0  0  0
  9 10  2  0  0  0  0
  9 11  1  0  0  0  0
 11 12  1  0  0  0  0
 12 13  2  0  0  0  0
 12 15  1  0  0  0  0
 13 14  1  0  0  0  0
 15 16  2  0  0  0  0
 15 20  1  0  0  0  0
 16 17  1  0  0  0  0
 17 18  2  0  0  0  0
 17 24  1  0  0  0  0
 18 19  1  0  0  0  0
 19 20  2  0  0  0  0
 20 21  1  0  0  0  0
 21 22  1  0  0  0  0
 22 23  1  0  0  0  0
 24 25  2  0  0  0  0
 24 26  2  0  0  0  0
 24 27  1  0  0  0  0
 27 28  1  0  0  0  0
 27 33  1  0  0  0  0
 28 29  1  0  0  0  0
 29 30  1  0  0  0  0
 30 31  1  0  0  0  0
 30 32  1  0  0  0  0
 32 33  1  0  0  0  0
  1 34  1  0  0  0  0
  1 35  1  0  0  0  0
  1 36  1  0  0  0  0
  2 37  1  0  0  0  0
  2 38  1  0  0  0  0
  3 39  1  0  0  0  0
  3 40  1  0  0  0  0
  7 41  1  0  0  0  0
  7 42  1  0  0  0  0
  7 43  1  0  0  0  0
 11 44  1  0  0  0  0
 16 45  1  0  0  0  0
 18 46  1  0  0  0  0
 19 47  1  0  0  0  0
 22 48  1  0  0  0  0
 22 49  1  0  0  0  0
 23 50  1  0  0  0  0
 23 51  1  0  0  0  0
 23 52  1  0  0  0  0
 28 53  1  0  0  0  0
 28 54  1  0  0  0  0
 29 55  1  0  0  0  0
 29 56  1  0  0  0  0
 31 57  1  0  0  0  0
 31 58  1  0  0  0  0
 31 59  1  0  0  0  0
 32 60  1  0  0  0  0
 32 61  1  0  0  0  0
 33 62  1  0  0  0  0
 33 63  1  0  0  0  0
M  END
$$$$
