
  -OEChem-07112320593D

 52 55  0     1  0  0  0  0  0999 V2000
    2.2009   -0.4599    4.6015 C   0  0  0  0  0  0  0  0  0  0  0  0
    1.4651   -0.3445    3.4238 C   0  0  0  0  0  0  0  0  0  0  0  0
    3.4829   -1.0172    4.5987 C   0  0  0  0  0  0  0  0  0  0  0  0
    4.1077   -1.8865    1.1492 C   0  0  0  0  0  0  0  0  0  0  0  0
    5.2855   -2.2969    1.7301 C   0  0  0  0  0  0  0  0  0  0  0  0
    3.2821   -1.3499    2.1765 C   0  0  0  0  0  0  0  0  0  0  0  0
    1.9917   -0.7847    2.2041 C   0  0  0  0  0  0  0  0  0  0  0  0
    3.9965   -1.4529    3.3721 C   0  0  0  0  0  0  0  0  0  0  0  0
   -0.0602    1.0343   -0.5586 C   0  0  0  0  0  0  0  0  0  0  0  0
   -3.2879    0.0626   -1.4632 C   0  0  0  0  0  0  0  0  0  0  0  0
   -2.9548   -1.4010   -3.0193 C   0  0  0  0  0  0  0  0  0  0  0  0
    0.8172    0.8290    0.6627 C   0  0  0  0  0  0  0  0  0  0  0  0
   -0.1669   -1.4126    1.0413 C   0  0  0  0  0  0  0  0  0  0  0  0
   -0.8891   -1.3317   -0.2929 C   0  0  0  0  0  0  0  0  0  0  0  0
    1.1435   -0.6331    0.9558 C   0  0  2  0  0  0  0  0  0  0  0  0
   -1.8799    0.1783   -1.9814 C   0  0  2  0  0  0  0  0  0  0  0  0
   -3.2693   -5.3201   -1.1293 C   0  0  0  0  0  0  0  0  0  0  0  0
   -5.3817   -4.3774   -2.1117 C   0  0  0  0  0  0  0  0  0  0  0  0
   -3.3869   -2.5205   -3.8904 C   0  0  2  0  0  0  0  0  0  0  0  0
   -3.8757   -4.1624   -1.9322 C   0  0  0  0  0  0  0  0  0  0  0  0
   -3.1029   -3.8828   -3.2426 C   0  0  1  0  0  0  0  0  0  0  0  0
   -1.7651   -0.8980   -2.9743 N   0  0  0  0  0  0  0  0  0  0  0  0
    5.2088   -2.0315    3.0710 N   0  0  0  0  0  0  0  0  0  0  0  0
   -0.9559    0.0122   -0.8673 N   0  0  0  0  0  0  0  0  0  0  0  0
   -0.0005    2.1083   -1.1636 O   0  0  0  0  0  0  0  0  0  0  0  0
   -3.7982    0.6957   -0.5553 O   0  0  0  0  0  0  0  0  0  0  0  0
   -3.8981   -0.9059   -2.1992 O   0  0  0  0  0  0  0  0  0  0  0  0
   -2.7024   -2.4606   -5.0732 F   0  0  0  0  0  0  0  0  0  0  0  0
   -3.4633   -5.2764   -4.5940 Br  0  0  0  0  0  0  0  0  0  0  0  0
    1.7741   -0.1133    5.5311 H   0  0  0  0  0  0  0  0  0  0  0  0
    0.4766    0.0897    3.4527 H   0  0  0  0  0  0  0  0  0  0  0  0
    4.0558   -1.1082    5.5097 H   0  0  0  0  0  0  0  0  0  0  0  0
    3.8552   -1.9586    0.1016 H   0  0  0  0  0  0  0  0  0  0  0  0
    6.1226   -2.7486    1.2186 H   0  0  0  0  0  0  0  0  0  0  0  0
    1.7623    1.3689    0.5040 H   0  0  0  0  0  0  0  0  0  0  0  0
    0.2973    1.2489    1.5364 H   0  0  0  0  0  0  0  0  0  0  0  0
   -0.8010   -0.9794    1.8289 H   0  0  0  0  0  0  0  0  0  0  0  0
    0.0468   -2.4649    1.2799 H   0  0  0  0  0  0  0  0  0  0  0  0
   -0.3657   -1.9846   -1.0069 H   0  0  0  0  0  0  0  0  0  0  0  0
   -1.9174   -1.6952   -0.1494 H   0  0  0  0  0  0  0  0  0  0  0  0
    1.7171   -1.0287    0.1046 H   0  0  0  0  0  0  0  0  0  0  0  0
   -2.1887   -5.1555   -1.0066 H   0  0  0  0  0  0  0  0  0  0  0  0
   -3.7472   -5.3698   -0.1398 H   0  0  0  0  0  0  0  0  0  0  0  0
   -3.4375   -6.2657   -1.6656 H   0  0  0  0  0  0  0  0  0  0  0  0
   -5.8058   -3.5421   -2.6882 H   0  0  0  0  0  0  0  0  0  0  0  0
   -5.5556   -5.3204   -2.6506 H   0  0  0  0  0  0  0  0  0  0  0  0
   -5.8654   -4.4245   -1.1248 H   0  0  0  0  0  0  0  0  0  0  0  0
   -4.4700   -2.4401   -4.0649 H   0  0  0  0  0  0  0  0  0  0  0  0
   -3.7628   -3.2618   -1.3108 H   0  0  0  0  0  0  0  0  0  0  0  0
   -2.0245   -3.9640   -3.0415 H   0  0  0  0  0  0  0  0  0  0  0  0
    5.9293   -2.2293    3.7357 H   0  0  0  0  0  0  0  0  0  0  0  0
   -4.6963    0.4101   -0.4353 H   0  0  0  0  0  0  0  0  0  0  0  0
  1  2  2  0  0  0  0
  1  3  1  0  0  0  0
  2  7  1  0  0  0  0
  3  8  2  0  0  0  0
  4  5  2  0  0  0  0
  4  6  1  0  0  0  0
  5 23  1  0  0  0  0
  6  7  2  0  0  0  0
  6  8  1  0  0  0  0
  7 15  1  0  0  0  0
  8 23  1  0  0  0  0
  9 12  1  0  0  0  0
  9 24  1  0  0  0  0
  9 25  2  0  0  0  0
 10 16  2  0  0  0  0
 10 26  1  0  0  0  0
 10 27  1  0  0  0  0
 11 19  1  0  0  0  0
 11 22  2  0  0  0  0
 11 27  1  0  0  0  0
 12 15  1  0  0  0  0
 13 14  1  0  0  0  0
 13 15  1  0  0  0  0
 14 24  1  0  0  0  0
 16 22  1  0  0  0  0
 16 24  1  0  0  0  0
 17 20  1  0  0  0  0
 18 20  1  0  0  0  0
 19 21  1  0  0  0  0
 19 28  1  0  0  0  0
 20 21  1  0  0  0  0
 21 29  1  0  0  0  0
  1 30  1  0  0  0  0
  2 31  1  0  0  0  0
  3 32  1  0  0  0  0
  4 33  1  0  0  0  0
  5 34  1  0  0  0  0
 12 35  1  0  0  0  0
 12 36  1  0  0  0  0
 13 37  1  0  0  0  0
 13 38  1  0  0  0  0
 14 39  1  0  0  0  0
 14 40  1  0  0  0  0
 15 41  1  0  0  0  0
 17 42  1  0  0  0  0
 17 43  1  0  0  0  0
 17 44  1  0  0  0  0
 18 45  1  0  0  0  0
 18 46  1  0  0  0  0
 18 47  1  0  0  0  0
 19 48  1  0  0  0  0
 20 49  1  0  0  0  0
 21 50  1  0  0  0  0
 23 51  1  0  0  0  0
 26 52  1  0  0  0  0
M  END
$$$$
